1
9
.tran 200u 3m{return}{return}
1
2
Rpu
I
