* DDAP202UM D model
* Model Generated by ROHM
* All Rights Reserved
* Commercial Use or 
* Resale Restricted
* Date: 2008/11/05
.MODEL DDAP202UM D
+ IS=3.8311E-12
+ N=1.1556
+ RS=.16041
+ IKF=1.0156E-3
+ CJO=2.9921E-12
+ M=.17376
+ VJ=.80381
+ ISR=1.0089E-9
+ NR=2.5000
+ BV=80
+ TT=27.500E-9
